powerfactory/powerfactory-converter/src/test/resources/Transformer-VhVl-Non-Neutral.xiidm
<?xml version="1.0" encoding="UTF-8"?>
<iidm:network xmlns:iidm="http://www.powsybl.org/schema/iidm/1_17" id="Transformer-VhVl-Non-Neutral" caseDate="2021-01-01T10:00:00.000+02:00" forecastDistance="0" sourceFormat="POWER-FACTORY" minimumValidationLevel="STEADY_STATE_HYPOTHESIS">
    <iidm:substation id="S10">
        <iidm:voltageLevel id="VL10" nominalV="400.0" topologyKind="NODE_BREAKER">
            <iidm:nodeBreakerTopology>
                <iidm:busbarSection id="VL10_1 Bus 1-Slack" node="0"/>
                <iidm:switch id="VL10_Switch" kind="BREAKER" open="false" node1="0" node2="1"/>
                <iidm:switch id="VL10_Switch#0" kind="BREAKER" open="false" node1="0" node2="2"/>
                <iidm:bus v="423.9999694824219" angle="0.0" nodes="0,1,2"/>
            </iidm:nodeBreakerTopology>
            <iidm:generator id="sym_1_1" energySource="OTHER" minP="0.0" maxP="50.470001220703125" targetP="50.470001220703125" localTargetV="423.9999771118164" localTargetQ="0.0" node="2">
                <iidm:minMaxReactiveLimits minQ="0.0" maxQ="0.0"/>
                <iidm:voltageRegulation mode="VOLTAGE" regulating="true"/>
            </iidm:generator>
        </iidm:voltageLevel>
    </iidm:substation>
    <iidm:substation id="S11">
        <iidm:voltageLevel id="VL11" nominalV="400.0" topologyKind="NODE_BREAKER">
            <iidm:nodeBreakerTopology>
                <iidm:busbarSection id="VL11_2 Bus 2" node="0"/>
                <iidm:switch id="VL11_Switch" kind="BREAKER" open="false" node1="0" node2="1"/>
                <iidm:switch id="VL11_Switch#0" kind="BREAKER" open="false" node1="0" node2="2"/>
                <iidm:bus v="418.6197204589844" angle="-1.460877776145935" nodes="0,1,2"/>
            </iidm:nodeBreakerTopology>
        </iidm:voltageLevel>
        <iidm:voltageLevel id="VL12" nominalV="20.0" topologyKind="NODE_BREAKER">
            <iidm:nodeBreakerTopology>
                <iidm:busbarSection id="VL12_3 Bus 2-Load" node="0"/>
                <iidm:switch id="VL12_Switch" kind="BREAKER" open="false" node1="0" node2="1"/>
                <iidm:switch id="VL12_Switch#0" kind="BREAKER" open="false" node1="0" node2="2"/>
                <iidm:bus v="20.19123077392578" angle="-2.1322784423828125" nodes="0,1,2"/>
            </iidm:nodeBreakerTopology>
            <iidm:load id="lod_3_1" loadType="UNDEFINED" p0="50.0" q0="25.0" node="1"/>
        </iidm:voltageLevel>
        <iidm:twoWindingsTransformer id="trf_2_3_1" r="0.0031199999227605408" x="0.09771995949237713" ratedU1="412.0" ratedU2="20.0" ratedS="29.760000228881836" node1="2" voltageLevelId1="VL11" node2="2" voltageLevelId2="VL12">
            <iidm:ratioTapChanger tapPosition="3" loadTapChangingCapabilities="false">
                <iidm:step rho="1.1704545549678902"/>
                <iidm:step rho="1.107526887399032"/>
                <iidm:step rho="1.0510204107202326"/>
                <iidm:step rho="1.0"/>
                <iidm:step rho="0.9537037015983271"/>
                <iidm:step rho="0.9115044209323967"/>
            </iidm:ratioTapChanger>
        </iidm:twoWindingsTransformer>
    </iidm:substation>
    <iidm:line id="lne_1_2_1" r="31.007963180541992" x="94.67198181152344" b1="1.0815001583099366E-4" b2="1.0815001583099366E-4" node1="1" voltageLevelId1="VL10" node2="1" voltageLevelId2="VL11"/>
</iidm:network>
